<configuration>
    <input>
        <net-file value="map.net.xml"/>
        <route-files value="routes.rou.xml"/>
    </input>

    <time>
        <begin value="0"/>
        <end value="5000"/>
    </time>

    <!-- TELEPORT CONTROL -->
    <processing>
        <time-to-teleport value="600"/>
    </processing>

    <gui_only>
        <delay value="100"/>
        <start value="true"/>
        
    </gui_only>
</configuration>