<?xml version="1.0" encoding="UTF-8"?>

<!-- generated on 2026-04-25T09:40:35.936716+05:30 by Eclipse SUMO netconvert 1.26.0
<netconvertConfiguration xmlns:xsi="http://www.w3.org/2001/XMLSchema-instance" xsi:noNamespaceSchemaLocation="http://sumo.dlr.de/xsd/netconvertConfiguration.xsd">

    <input>
        <osm-files value="map.osm"/>
    </input>

    <output>
        <output-file value="map.net.xml"/>
    </output>

    <projection>
        <proj.utm value="true"/>
    </projection>

</netconvertConfiguration>
-->

<net version="1.20" junctionCornerDetail="5" limitTurnSpeed="5.50" xmlns:xsi="http://www.w3.org/2001/XMLSchema-instance" xsi:noNamespaceSchemaLocation="http://sumo.dlr.de/xsd/net_file.xsd">

    <location netOffset="-418519.94,-1442448.57" convBoundary="0.00,0.00,3678.72,3868.55" origBoundary="80.153503,13.046952,80.287995,13.082009" projParameter="+proj=utm +zone=44 +ellps=WGS84 +datum=WGS84 +units=m +no_defs"/>

    <type id="highway.footway" priority="1" numLanes="1" speed="2.78" allow="pedestrian" oneway="1" width="2.00"/>
    <type id="highway.living_street" priority="2" numLanes="1" speed="2.78" disallow="tram rail_urban rail rail_electric rail_fast ship container cable_car subway aircraft wheelchair scooter drone" oneway="0"/>
    <type id="highway.primary" priority="12" numLanes="2" speed="27.78" disallow="tram rail_urban rail rail_electric rail_fast ship container cable_car subway aircraft wheelchair scooter drone" oneway="0"/>
    <type id="highway.primary_link" priority="7" numLanes="1" speed="22.22" disallow="tram rail_urban rail rail_electric rail_fast ship container cable_car subway aircraft wheelchair scooter drone" oneway="0"/>
    <type id="highway.residential" priority="3" numLanes="1" speed="13.89" disallow="tram rail_urban rail rail_electric rail_fast ship container cable_car subway aircraft wheelchair scooter drone" oneway="0"/>
    <type id="highway.secondary" priority="11" numLanes="1" speed="27.78" disallow="tram rail_urban rail rail_electric rail_fast ship container cable_car subway aircraft wheelchair scooter drone" oneway="0"/>
    <type id="highway.service" priority="1" numLanes="1" speed="5.56" allow="pedestrian delivery bicycle" oneway="0"/>
    <type id="highway.steps" priority="1" numLanes="1" speed="1.39" allow="pedestrian" oneway="1" width="2.00"/>
    <type id="highway.tertiary" priority="10" numLanes="1" speed="22.22" disallow="tram rail_urban rail rail_electric rail_fast ship container cable_car subway aircraft wheelchair scooter drone" oneway="0"/>
    <type id="railway.rail" priority="20" numLanes="1" speed="44.44" allow="rail" oneway="1"/>
    <type id="railway.subway" priority="18" numLanes="1" speed="27.78" allow="subway" oneway="1"/>

    <edge id=":10277860602_0" function="internal">
        <lane id=":10277860602_0_0" index="0" allow="pedestrian delivery bicycle" speed="5.56" length="5.82" shape="2868.98,2571.20 2867.84,2570.74 2866.61,2570.83 2865.28,2571.49 2863.86,2572.71"/>
    </edge>
    <edge id=":10277860602_1" function="internal">
        <lane id=":10277860602_1_0" index="0" allow="pedestrian delivery bicycle" speed="5.56" length="9.78" shape="2868.98,2571.20 2866.57,2569.59 2864.87,2568.57 2863.09,2567.67 2860.46,2566.44"/>
    </edge>
    <edge id=":10277860602_2" function="internal">
        <lane id=":10277860602_2_0" index="0" allow="pedestrian delivery bicycle" speed="5.56" length="10.34" shape="2868.98,2571.20 2867.07,2569.44 2865.99,2567.32 2865.73,2564.85 2866.31,2562.03"/>
    </edge>
    <edge id=":10277860602_3" function="internal">
        <lane id=":10277860602_3_0" index="0" allow="pedestrian delivery bicycle" speed="3.65" length="4.67" shape="2868.98,2571.20 2868.44,2569.86 2868.56,2568.98 2869.35,2568.54 2870.79,2568.56"/>
    </edge>
    <edge id=":10277860602_4" function="internal">
        <lane id=":10277860602_4_0" index="0" allow="pedestrian delivery bicycle" speed="5.56" length="6.18" shape="2869.35,2563.03 2868.98,2564.77 2869.10,2566.27 2869.70,2567.53 2870.79,2568.56"/>
    </edge>
    <edge id=":10277860602_5" function="internal">
        <lane id=":10277860602_5_0" index="0" allow="pedestrian delivery bicycle" speed="5.56" length="11.28" shape="2869.35,2563.03 2868.32,2566.04 2867.33,2568.31 2865.97,2570.36 2863.86,2572.71"/>
    </edge>
    <edge id=":10277860602_6" function="internal">
        <lane id=":10277860602_6_0" index="0" allow="pedestrian delivery bicycle" speed="5.56" length="11.18" shape="2869.35,2563.03 2867.98,2565.70 2866.04,2567.17 2863.54,2567.41 2860.46,2566.44"/>
    </edge>
    <edge id=":10277860602_7" function="internal">
        <lane id=":10277860602_7_0" index="0" allow="pedestrian delivery bicycle" speed="3.65" length="4.67" shape="2869.35,2563.03 2868.21,2563.92 2867.33,2564.05 2866.69,2563.42 2866.31,2562.03"/>
    </edge>
    <edge id=":10277860602_8" function="internal">
        <lane id=":10277860602_8_0" index="0" allow="pedestrian delivery bicycle" speed="5.08" length="5.56" shape="2861.81,2563.55 2863.39,2564.06 2864.67,2563.98 2865.64,2563.30 2866.31,2562.03"/>
    </edge>
    <edge id=":10277860602_9" function="internal">
        <lane id=":10277860602_9_0" index="0" allow="pedestrian delivery bicycle" speed="5.56" length="10.30" shape="2861.81,2563.55 2864.55,2564.83 2866.45,2565.79 2868.28,2566.88 2870.79,2568.56"/>
    </edge>
    <edge id=":10277860602_10" function="internal">
        <lane id=":10277860602_10_0" index="0" allow="pedestrian delivery bicycle" speed="5.56" length="11.80" shape="2861.81,2563.55 2864.78,2565.45 2866.10,2567.61 2865.80,2570.03 2863.86,2572.71"/>
    </edge>
    <edge id=":10277860602_11" function="internal">
        <lane id=":10277860602_11_0" index="0" allow="pedestrian delivery bicycle" speed="3.65" length="4.67" shape="2861.81,2563.55 2862.56,2564.78 2862.59,2565.67 2861.88,2566.23 2860.46,2566.44"/>
    </edge>
    <edge id=":10277860602_12" function="internal">
        <lane id=":10277860602_12_0" index="0" allow="pedestrian delivery bicycle" speed="4.75" length="5.44" shape="2861.38,2570.67 2862.28,2569.43 2862.42,2568.31 2861.82,2567.32 2860.46,2566.44"/>
    </edge>
    <edge id=":10277860602_13" function="internal">
        <lane id=":10277860602_13_0" index="0" allow="pedestrian delivery bicycle" speed="5.56" length="10.11" shape="2861.38,2570.67 2863.40,2568.48 2864.57,2566.79 2865.37,2564.87 2866.31,2562.03"/>
    </edge>
    <edge id=":10277860602_14" function="internal">
        <lane id=":10277860602_14_0" index="0" allow="pedestrian delivery bicycle" speed="5.56" length="10.58" shape="2861.38,2570.67 2863.85,2568.62 2866.24,2567.58 2868.55,2567.56 2870.79,2568.56"/>
    </edge>
    <edge id=":10277860602_15" function="internal">
        <lane id=":10277860602_15_0" index="0" allow="pedestrian delivery bicycle" speed="3.65" length="4.69" shape="2861.38,2570.67 2862.76,2570.25 2863.64,2570.45 2864.00,2571.27 2863.86,2572.71"/>
    </edge>
    <edge id=":10277860603_0" function="internal">
        <lane id=":10277860603_0_0" index="0" allow="pedestrian delivery bicycle" speed="5.56" length="9.30" shape="2909.00,2591.86 2902.77,2598.76"/>
    </edge>
    <edge id=":10277860603_1" function="internal">
        <lane id=":10277860603_1_0" index="0" allow="pedestrian delivery bicycle" speed="5.56" length="10.16" shape="2909.00,2591.86 2906.99,2593.42 2904.78,2594.02 2902.39,2593.64 2899.81,2592.30"/>
    </edge>
    <edge id=":10277860603_2" function="internal">
        <lane id=":10277860603_2_0" index="0" allow="pedestrian delivery bicycle" speed="3.65" length="4.67" shape="2909.00,2591.86 2907.60,2592.19 2906.74,2591.93 2906.43,2591.09 2906.67,2589.67"/>
    </edge>
    <edge id=":10277860603_3" function="internal">
        <lane id=":10277860603_3_0" index="0" allow="pedestrian delivery bicycle" speed="5.56" length="5.56" shape="2901.62,2589.65 2903.09,2590.45 2904.42,2590.71 2905.61,2590.45 2906.67,2589.67"/>
    </edge>
    <edge id=":10277860603_4" function="internal">
        <lane id=":10277860603_4_0" index="0" allow="pedestrian delivery bicycle" speed="5.56" length="10.77" shape="2901.62,2589.65 2903.83,2591.69 2904.76,2593.88 2904.40,2596.24 2902.77,2598.76"/>
    </edge>
    <edge id=":10277860603_5" function="internal">
        <lane id=":10277860603_5_0" index="0" allow="pedestrian delivery bicycle" speed="3.65" length="4.67" shape="2901.62,2589.65 2902.16,2590.99 2902.03,2591.88 2901.25,2592.31 2899.81,2592.30"/>
    </edge>
    <edge id=":10277860603_6" function="internal">
        <lane id=":10277860603_6_0" index="0" allow="pedestrian delivery bicycle" speed="4.92" length="5.15" shape="2900.36,2596.65 2901.14,2595.44 2901.31,2594.32 2900.87,2593.27 2899.81,2592.30"/>
    </edge>
    <edge id=":10277860603_7" function="internal">
        <lane id=":10277860603_7_0" index="0" allow="pedestrian delivery bicycle" speed="5.56" length="9.40" shape="2900.36,2596.65 2906.67,2589.67"/>
    </edge>
    <edge id=":10277860603_8" function="internal">
        <lane id=":10277860603_8_0" index="0" allow="pedestrian delivery bicycle" speed="3.65" length="4.67" shape="2900.36,2596.65 2901.75,2596.27 2902.62,2596.50 2902.95,2597.33 2902.77,2598.76"/>
    </edge>
    <edge id=":10696542540_0" function="internal">
        <lane id=":10696542540_0_0" index="0" disallow="tram rail_urban rail rail_electric rail_fast ship container cable_car subway aircraft wheelchair scooter drone" speed="27.78" length="6.94" shape="2536.87,2381.42 2538.18,2383.13 2539.12,2384.28 2539.94,2385.50 2540.91,2387.42"/>
        <lane id=":10696542540_0_1" index="1" disallow="tram rail_urban rail rail_electric rail_fast ship container cable_car subway aircraft wheelchair scooter drone" speed="27.78" length="6.94" shape="2534.28,2383.30 2535.49,2384.86 2536.35,2385.90 2537.11,2387.01 2538.00,2388.75"/>
    </edge>
    <edge id=":11043843671_0" function="internal">
        <lane id=":11043843671_0_0" index="0" disallow="tram rail_urban rail rail_electric rail_fast ship container cable_car subway aircraft wheelchair scooter drone" speed="27.78" length="6.35" shape="2759.43,2623.37 2763.93,2627.94"/>
        <lane id=":11043843671_0_1" index="1" disallow="tram rail_urban rail rail_electric rail_fast ship container cable_car subway aircraft wheelchair scooter drone" speed="27.78" length="6.35" shape="2757.19,2625.65 2761.59,2630.13"/>
    </edge>
    <edge id=":11043843671_2" function="internal">
        <lane id=":11043843671_2_0" index="0" allow="pedestrian delivery bicycle" speed="5.24" length="5.18" shape="2756.98,2630.03 2758.23,2629.26 2759.42,2629.02 2760.54,2629.31 2761.59,2630.13"/>
    </edge>
    <edge id=":11043857125_0" function="internal">
        <lane id=":11043857125_0_0" index="0" allow="pedestrian delivery bicycle" speed="5.56" length="0.14" shape="2694.79,2498.95 2694.68,2498.85"/>
    </edge>
    <edge id=":11043857125_1" function="internal">
        <lane id=":11043857125_1_0" index="0" allow="pedestrian delivery bicycle" speed="5.56" length="0.28" shape="2696.84,2496.49 2697.04,2496.68"/>
    </edge>
    <edge id=":11043857134_0" function="internal">
        <lane id=":11043857134_0_0" index="0" allow="pedestrian delivery bicycle" speed="3.65" length="4.67" shape="2692.33,2306.19 2693.49,2307.04 2693.86,2307.86 2693.43,2308.64 2692.19,2309.39"/>
    </edge>
    <edge id=":11043857141_0" function="internal">
        <lane id=":11043857141_0_0" index="0" allow="pedestrian delivery bicycle" speed="3.65" length="4.67" shape="2774.42,2376.08 2774.43,2374.64 2774.88,2373.86 2775.77,2373.76 2777.10,2374.32"/>
    </edge>
    <edge id=":11617931235_0" function="internal">
        <lane id=":11617931235_0_0" index="0" allow="pedestrian delivery bicycle" speed="3.65" length="4.67" shape="2335.84,2346.40 2336.38,2345.06 2337.08,2344.50 2337.95,2344.73 2338.98,2345.74"/>
    </edge>
    <edge id=":11617931242_0" function="internal">
        <lane id=":11617931242_0_0" index="0" allow="pedestrian delivery bicycle" speed="3.65" length="4.67" shape="2373.11,2408.14 2372.69,2409.51 2372.03,2410.12 2371.15,2409.97 2370.05,2409.04"/>
    </edge>
    <edge id=":11782538970_0" function="internal">
        <lane id=":11782538970_0_0" index="0" allow="pedestrian delivery bicycle" speed="3.65" length="4.67" shape="2722.03,2801.87 2721.34,2803.14 2720.58,2803.60 2719.75,2803.27 2718.85,2802.15"/>
    </edge>
    <edge id=":11782538971_0" function="internal">
        <lane id=":11782538971_0_0" index="0" allow="pedestrian delivery bicycle" speed="3.65" length="4.67" shape="2708.46,2672.79 2709.16,2671.53 2709.92,2671.07 2710.75,2671.40 2711.64,2672.53"/>
    </edge>
    <edge id=":11782538978_0" function="internal">
        <lane id=":11782538978_0_0" index="0" allow="pedestrian delivery bicycle" speed="5.56" length="9.47" shape="2713.50,2740.33 2712.76,2730.88"/>
    </edge>
    <edge id=":11782538978_1" function="internal">
        <lane id=":11782538978_1_0" index="0" allow="pedestrian delivery bicycle" speed="5.56" length="10.20" shape="2713.50,2740.33 2713.66,2737.54 2714.67,2735.47 2716.55,2734.13 2719.28,2733.51"/>
    </edge>
    <edge id=":11782538978_2" function="internal">
        <lane id=":11782538978_2_0" index="0" allow="pedestrian delivery bicycle" speed="3.65" length="4.67" shape="2713.50,2740.33 2714.20,2739.06 2714.96,2738.59 2715.79,2738.92 2716.69,2740.05"/>
    </edge>
    <edge id=":11782538978_3" function="internal">
        <lane id=":11782538978_3_0" index="0" allow="pedestrian delivery bicycle" speed="5.04" length="5.02" shape="2719.54,2736.70 2718.19,2737.00 2717.27,2737.66 2716.77,2738.68 2716.69,2740.05"/>
    </edge>
    <edge id=":11782538978_4" function="internal">
        <lane id=":11782538978_4_0" index="0" allow="pedestrian delivery bicycle" speed="5.56" length="10.21" shape="2719.54,2736.70 2716.74,2736.53 2714.68,2735.50 2713.35,2733.62 2712.76,2730.88"/>
    </edge>
    <edge id=":11782538978_5" function="internal">
        <lane id=":11782538978_5_0" index="0" allow="pedestrian delivery bicycle" speed="3.65" length="4.67" shape="2719.54,2736.70 2718.28,2736.00 2717.81,2735.23 2718.15,2734.40 2719.28,2733.51"/>
    </edge>
    <edge id=":11782538978_6" function="internal">
        <lane id=":11782538978_6_0" index="0" allow="pedestrian delivery bicycle" speed="5.03" length="5.01" shape="2715.95,2730.66 2716.24,2732.00 2716.89,2732.92 2717.90,2733.43 2719.28,2733.51"/>
    </edge>
    <edge id=":11782538978_7" function="internal">
        <lane id=":11782538978_7_0" index="0" allow="pedestrian delivery bicycle" speed="5.56" length="9.42" shape="2715.95,2730.66 2716.69,2740.05"/>
    </edge>
    <edge id=":11782538978_8" function="internal">
        <lane id=":11782538978_8_0" index="0" allow="pedestrian delivery bicycle" speed="3.65" length="4.67" shape="2715.95,2730.66 2715.24,2731.91 2714.47,2732.37 2713.64,2732.02 2712.76,2730.88"/>
    </edge>
    <edge id=":11782538983_0" function="internal">
        <lane id=":11782538983_0_0" index="0" disallow="tram rail_urban rail rail_electric rail_fast ship container cable_car subway aircraft wheelchair scooter drone" speed="27.78" length="9.41" shape="2766.72,2632.16 2770.61,2640.73"/>
        <lane id=":11782538983_0_1" index="1" disallow="tram rail_urban rail rail_electric rail_fast ship container cable_car subway aircraft wheelchair scooter drone" speed="27.78" length="9.41" shape="2763.81,2633.48 2767.69,2642.05"/>
    </edge>
    <edge id=":11782538983_2" function="internal">
        <lane id=":11782538983_2_0" index="0" allow="pedestrian delivery bicycle" speed="6.06" length="7.82" shape="2763.81,2633.48 2764.77,2636.09 2765.04,2638.13 2764.60,2639.60 2763.47,2640.51"/>
    </edge>
    <edge id=":11782538983_3" function="internal">
        <lane id=":11782538983_3_0" index="0" allow="pedestrian delivery bicycle" speed="6.14" length="7.79" shape="2762.22,2637.57 2763.64,2637.39 2765.03,2638.07 2766.38,2639.63 2767.69,2642.05"/>
    </edge>
    <edge id=":11782538983_4" function="internal">
        <lane id=":11782538983_4_0" index="0" allow="pedestrian delivery bicycle" speed="3.65" length="4.67" shape="2762.22,2637.57 2763.64,2637.84 2764.32,2638.41 2764.26,2639.31 2763.47,2640.51"/>
    </edge>
    <edge id=":11782538985_0" function="internal">
        <lane id=":11782538985_0_0" index="0" allow="pedestrian delivery bicycle" speed="5.56" length="0.31" shape="2710.83,2704.11 2710.81,2703.80"/>
    </edge>
    <edge id=":11782538985_1" function="internal">
        <lane id=":11782538985_1_0" index="0" allow="pedestrian delivery bicycle" speed="5.56" length="0.28" shape="2714.01,2703.60 2714.03,2703.88"/>
    </edge>
    <edge id=":11782538986_0" function="internal">
        <lane id=":11782538986_0_0" index="0" allow="pedestrian delivery bicycle" speed="5.56" length="0.27" shape="2710.25,2695.16 2710.23,2694.88"/>
    </edge>
    <edge id=":11782538986_1" function="internal">
        <lane id=":11782538986_1_0" index="0" allow="pedestrian delivery bicycle" speed="5.56" length="0.31" shape="2713.42,2694.63 2713.45,2694.94"/>
    </edge>
    <edge id=":11892050390_0" function="internal">
        <lane id=":11892050390_0_0" index="0" allow="pedestrian delivery bicycle" speed="5.56" length="0.29" shape="2710.76,2702.96 2710.74,2702.66"/>
    </edge>
    <edge id=":11892050390_1" function="internal">
        <lane id=":11892050390_1_0" index="0" allow="pedestrian delivery bicycle" speed="5.56" length="0.30" shape="2713.94,2702.46 2713.96,2702.76"/>
    </edge>
    <edge id=":11892050391_0" function="internal">
        <lane id=":11892050391_0_0" index="0" allow="pedestrian delivery bicycle" speed="5.56" length="0.29" shape="2710.33,2696.32 2710.31,2696.03"/>
    </edge>
    <edge id=":11892050391_1" function="internal">
        <lane id=":11892050391_1_0" index="0" allow="pedestrian delivery bicycle" speed="5.56" length="0.31" shape="2713.51,2695.81 2713.53,2696.12"/>
    </edge>
    <edge id=":11936481870_0" function="internal">
        <lane id=":11936481870_0_0" index="0" disallow="tram rail_urban rail rail_electric rail_fast ship container cable_car subway aircraft wheelchair scooter drone" speed="27.78" length="14.44" shape="2846.80,2756.93 2839.20,2744.66"/>
        <lane id=":11936481870_0_1" index="1" disallow="tram rail_urban rail rail_electric rail_fast ship container cable_car subway aircraft wheelchair scooter drone" speed="27.78" length="14.44" shape="2849.52,2755.25 2841.92,2742.97"/>
    </edge>
    <edge id=":11936481870_2" function="internal">
        <lane id=":11936481870_2_0" index="0" disallow="tram rail_urban rail rail_electric rail_fast ship container cable_car subway aircraft wheelchair scooter drone" speed="13.27" length="14.30" shape="2849.52,2755.25 2847.58,2751.31 2846.92,2748.02 2847.10,2744.92 2847.67,2741.52"/>
    </edge>
    <edge id=":11937054240_0" function="internal">
        <lane id=":11937054240_0_0" index="0" allow="pedestrian delivery bicycle" speed="5.47" length="5.51" shape="3015.93,2627.12 3017.17,2628.19 3018.40,2628.72 3019.61,2628.69 3020.80,2628.11"/>
    </edge>
    <edge id=":11937054240_1" function="internal">
        <lane id=":11937054240_1_0" index="0" allow="pedestrian delivery bicycle" speed="3.65" length="4.67" shape="3015.93,2627.12 3016.16,2628.54 3015.84,2629.38 3014.98,2629.63 3013.58,2629.29"/>
    </edge>
    <edge id=":11937054240_2" function="internal">
        <lane id=":11937054240_2_0" index="0" allow="pedestrian delivery bicycle" speed="4.92" length="5.15" shape="3013.15,2633.65 3014.18,2632.65 3014.59,2631.59 3014.39,2630.47 3013.58,2629.29"/>
    </edge>
    <edge id=":11937054240_3" function="internal">
        <lane id=":11937054240_3_0" index="0" disallow="tram rail_urban rail rail_electric rail_fast ship container cable_car subway aircraft wheelchair scooter drone" speed="22.22" length="9.45" shape="3013.15,2633.65 3020.80,2628.11"/>
    </edge>
    <edge id=":12027826403_0" function="internal">
        <lane id=":12027826403_0_0" index="0" disallow="tram rail_urban rail rail_electric rail_fast ship container cable_car subway aircraft wheelchair scooter drone" speed="3.65" length="4.67" shape="2544.26,2734.47 2545.59,2735.02 2546.14,2735.73 2545.90,2736.59 2544.88,2737.61"/>
    </edge>
    <edge id=":12027888361_0" function="internal">
        <lane id=":12027888361_0_0" index="0" allow="pedestrian delivery bicycle" speed="5.56" length="7.87" shape="2588.89,2630.62 2586.55,2630.95 2584.85,2631.13 2583.39,2631.71 2581.76,2633.23"/>
    </edge>
    <edge id=":12027888361_1" function="internal">
        <lane id=":12027888361_1_0" index="0" allow="pedestrian delivery bicycle" speed="5.56" length="10.21" shape="2588.89,2630.62 2586.09,2630.80 2583.92,2630.03 2582.37,2628.33 2581.44,2625.69"/>
    </edge>
    <edge id=":12027888361_2" function="internal">
        <lane id=":12027888361_2_0" index="0" allow="pedestrian delivery bicycle" speed="3.65" length="4.67" shape="2588.89,2630.62 2587.55,2630.08 2587.00,2629.38 2587.23,2628.51 2588.24,2627.49"/>
    </edge>
    <edge id=":12027888361_3" function="internal">
        <lane id=":12027888361_3_0" index="0" allow="pedestrian delivery bicycle" speed="5.03" length="5.01" shape="2584.58,2625.07 2585.04,2626.36 2585.80,2627.20 2586.86,2627.57 2588.24,2627.49"/>
    </edge>
    <edge id=":12027888361_4" function="internal">
        <lane id=":12027888361_4_0" index="0" allow="pedestrian delivery bicycle" speed="5.56" length="8.92" shape="2584.58,2625.07 2584.69,2627.04 2584.26,2629.06 2583.28,2631.12 2581.76,2633.23"/>
    </edge>
    <edge id=":12027888361_5" function="internal">
        <lane id=":12027888361_5_0" index="0" allow="pedestrian delivery bicycle" speed="3.65" length="4.67" shape="2584.58,2625.07 2584.03,2626.40 2583.32,2626.95 2582.46,2626.71 2581.44,2625.69"/>
    </edge>
    <edge id=":12027888361_6" function="internal">
        <lane id=":12027888361_6_0" index="0" allow="pedestrian delivery bicycle" speed="5.56" length="5.38" shape="2579.94,2630.48 2580.86,2629.71 2581.41,2628.65 2581.61,2627.31 2581.44,2625.69"/>
    </edge>
    <edge id=":12027888361_7" function="internal">
        <lane id=":12027888361_7_0" index="0" allow="pedestrian delivery bicycle" speed="5.56" length="8.89" shape="2579.94,2630.48 2582.24,2629.21 2583.90,2628.49 2585.65,2628.02 2588.24,2627.49"/>
    </edge>
    <edge id=":12027888361_8" function="internal">
        <lane id=":12027888361_8_0" index="0" allow="pedestrian delivery bicycle" speed="3.85" length="4.81" shape="2579.94,2630.48 2581.42,2630.48 2582.22,2630.94 2582.33,2631.86 2581.76,2633.23"/>
    </edge>
    <edge id=":12027888362_0" function="internal">
        <lane id=":12027888362_0_0" index="0" allow="pedestrian delivery bicycle" speed="3.65" length="4.67" shape="2648.43,2613.66 2649.79,2614.14 2650.37,2614.82 2650.18,2615.70 2649.21,2616.76"/>
    </edge>
    <edge id=":12027888363_0" function="internal">
        <lane id=":12027888363_0_0" index="0" allow="pedestrian delivery bicycle" speed="5.23" length="5.17" shape="2617.10,2628.09 2616.53,2626.74 2615.70,2625.86 2614.62,2625.46 2613.28,2625.52"/>
    </edge>
    <edge id=":12027888363_1" function="internal">
        <lane id=":12027888363_1_0" index="0" allow="pedestrian delivery bicycle" speed="5.56" length="10.31" shape="2617.10,2628.09 2616.73,2625.28 2617.36,2623.05 2618.99,2621.40 2621.62,2620.33"/>
    </edge>
    <edge id=":12027888363_2" function="internal">
        <lane id=":12027888363_2_0" index="0" allow="pedestrian delivery bicycle" speed="3.65" length="4.67" shape="2617.10,2628.09 2617.55,2626.72 2618.21,2626.12 2619.09,2626.29 2620.19,2627.23"/>
    </edge>
    <edge id=":12027888363_3" function="internal">
        <lane id=":12027888363_3_0" index="0" allow="pedestrian delivery bicycle" speed="5.01" length="5.04" shape="2622.39,2623.43 2621.11,2623.96 2620.31,2624.76 2620.00,2625.85 2620.19,2627.23"/>
    </edge>
    <edge id=":12027888363_4" function="internal">
        <lane id=":12027888363_4_0" index="0" allow="pedestrian delivery bicycle" speed="5.56" length="9.35" shape="2622.39,2623.43 2613.28,2625.52"/>
    </edge>
    <edge id=":12027888363_5" function="internal">
        <lane id=":12027888363_5_0" index="0" allow="pedestrian delivery bicycle" speed="3.65" length="4.67" shape="2622.39,2623.43 2621.03,2622.95 2620.45,2622.27 2620.65,2621.40 2621.62,2620.33"/>
    </edge>
    <edge id=":12027888363_6" function="internal">
        <lane id=":12027888363_6_0" index="0" allow="pedestrian delivery bicycle" speed="5.56" length="9.22" shape="2612.63,2622.39 2621.62,2620.33"/>
    </edge>
    <edge id=":12027888363_7" function="internal">
        <lane id=":12027888363_7_0" index="0" allow="pedestrian delivery bicycle" speed="5.56" length="10.08" shape="2612.63,2622.39 2615.30,2622.24 2617.45,2622.99 2619.08,2624.65 2620.19,2627.23"/>
    </edge>
    <edge id=":12027888363_8" function="internal">
        <lane id=":12027888363_8_0" index="0" allow="pedestrian delivery bicycle" speed="3.65" length="4.67" shape="2612.63,2622.39 2613.97,2622.93 2614.52,2623.63 2614.29,2624.50 2613.28,2625.52"/>
    </edge>
    <edge id=":12027888364_0" function="internal">
        <lane id=":12027888364_0_0" index="0" allow="pedestrian delivery bicycle" speed="5.56" length="9.40" shape="2633.64,2664.45 2624.50,2666.65"/>
    </edge>
    <edge id=":12027888364_1" function="internal">
        <lane id=":12027888364_1_0" index="0" allow="pedestrian delivery bicycle" speed="5.56" length="10.17" shape="2633.64,2664.45 2630.92,2664.70 2628.74,2664.00 2627.09,2662.35 2625.98,2659.76"/>
    </edge>
    <edge id=":12027888364_2" function="internal">
        <lane id=":12027888364_2_0" index="0" allow="pedestrian delivery bicycle" speed="3.65" length="4.67" shape="2633.64,2664.45 2632.29,2663.95 2631.71,2663.27 2631.91,2662.40 2632.89,2661.34"/>
    </edge>
    <edge id=":12027888364_3" function="internal">
        <lane id=":12027888364_3_0" index="0" allow="pedestrian delivery bicycle" speed="5.15" length="5.13" shape="2629.06,2658.91 2629.63,2660.24 2630.45,2661.09 2631.54,2661.45 2632.89,2661.34"/>
    </edge>
    <edge id=":12027888364_4" function="internal">
        <lane id=":12027888364_4_0" index="0" allow="pedestrian delivery bicycle" speed="5.56" length="10.33" shape="2629.06,2658.91 2629.42,2661.73 2628.78,2663.96 2627.14,2665.60 2624.50,2666.65"/>
    </edge>
    <edge id=":12027888364_5" function="internal">
        <lane id=":12027888364_5_0" index="0" allow="pedestrian delivery bicycle" speed="3.65" length="4.67" shape="2629.06,2658.91 2628.61,2660.28 2627.94,2660.88 2627.07,2660.71 2625.98,2659.76"/>
    </edge>
    <edge id=":12027888364_6" function="internal">
        <lane id=":12027888364_6_0" index="0" allow="pedestrian delivery bicycle" speed="5.01" length="5.04" shape="2623.75,2663.54 2625.04,2663.03 2625.84,2662.23 2626.15,2661.14 2625.98,2659.76"/>
    </edge>
    <edge id=":12027888364_7" function="internal">
        <lane id=":12027888364_7_0" index="0" allow="pedestrian delivery bicycle" speed="5.56" length="9.40" shape="2623.75,2663.54 2632.89,2661.34"/>
    </edge>
    <edge id=":12027888364_8" function="internal">
        <lane id=":12027888364_8_0" index="0" allow="pedestrian delivery bicycle" speed="3.65" length="4.67" shape="2623.75,2663.54 2625.10,2664.04 2625.68,2664.72 2625.48,2665.59 2624.50,2666.65"/>
    </edge>
    <edge id=":12027888365_0" function="internal">
        <lane id=":12027888365_0_0" index="0" allow="pedestrian delivery bicycle" speed="5.56" length="9.40" shape="2593.39,2674.15 2584.25,2676.36"/>
    </edge>
    <edge id=":12027888365_1" function="internal">
        <lane id=":12027888365_1_0" index="0" allow="pedestrian delivery bicycle" speed="5.56" length="10.24" shape="2593.39,2674.15 2590.59,2674.42 2588.39,2673.72 2586.80,2672.06 2585.80,2669.43"/>
    </edge>
    <edge id=":12027888365_2" function="internal">
        <lane id=":12027888365_2_0" index="0" allow="pedestrian delivery bicycle" speed="3.65" length="4.67" shape="2593.39,2674.15 2592.04,2673.66 2591.46,2672.97 2591.66,2672.10 2592.64,2671.04"/>
    </edge>
    <edge id=":12027888365_3" function="internal">
        <lane id=":12027888365_3_0" index="0" allow="pedestrian delivery bicycle" speed="5.02" length="5.02" shape="2588.92,2668.73 2589.41,2670.01 2590.19,2670.83 2591.27,2671.17 2592.64,2671.04"/>
    </edge>
    <edge id=":12027888365_4" function="internal">
        <lane id=":12027888365_4_0" index="0" allow="pedestrian delivery bicycle" speed="5.56" length="10.16" shape="2588.92,2668.73 2589.15,2671.52 2588.45,2673.72 2586.82,2675.33 2584.25,2676.36"/>
    </edge>
    <edge id=":12027888365_5" function="internal">
        <lane id=":12027888365_5_0" index="0" allow="pedestrian delivery bicycle" speed="3.65" length="4.67" shape="2588.92,2668.73 2588.40,2670.07 2587.71,2670.64 2586.84,2670.42 2585.80,2669.43"/>
    </edge>
    <edge id=":12027888365_6" function="internal">
        <lane id=":12027888365_6_0" index="0" allow="pedestrian delivery bicycle" speed="5.09" length="5.06" shape="2583.50,2673.25 2584.77,2672.74 2585.57,2671.93 2585.91,2670.83 2585.80,2669.43"/>
    </edge>
    <edge id=":12027888365_7" function="internal">
        <lane id=":12027888365_7_0" index="0" allow="pedestrian delivery bicycle" speed="5.56" length="9.40" shape="2583.50,2673.25 2592.64,2671.04"/>
    </edge>
    <edge id=":12027888365_8" function="internal">
        <lane id=":12027888365_8_0" index="0" allow="pedestrian delivery bicycle" speed="3.65" length="4.67" shape="2583.50,2673.25 2584.86,2673.74 2585.43,2674.43 2585.23,2675.30 2584.25,2676.36"/>
    </edge>
    <edge id=":12027922473_0" function="internal">
        <lane id=":12027922473_0_0" index="0" allow="pedestrian delivery bicycle" speed="5.56" length="7.65" shape="2740.52,2631.61 2742.34,2633.54 2743.99,2634.83 2745.46,2635.49 2746.76,2635.52"/>
    </edge>