<?xml version="1.0" encoding="UTF-8"?>

<!-- generated on 2026-04-25T09:41:15.376339+05:30 by Eclipse SUMO duarouter 1.26.0
<duarouterConfiguration xmlns:xsi="http://www.w3.org/2001/XMLSchema-instance" xsi:noNamespaceSchemaLocation="http://sumo.dlr.de/xsd/duarouterConfiguration.xsd">

    <input>
        <net-file value="map.net.xml"/>
        <route-files value="trips.xml"/>
    </input>

    <output>
        <output-file value="routes.rou.xml"/>
        <alternatives-output value="NUL"/>
    </output>

    <time>
        <begin value="0"/>
        <end value="2000.0"/>
    </time>

    <report>
        <no-warnings value="true"/>
        <ignore-errors value="true"/>
        <no-step-log value="true"/>
    </report>

</duarouterConfiguration>
-->

<routes xmlns:xsi="http://www.w3.org/2001/XMLSchema-instance" xsi:noNamespaceSchemaLocation="http://sumo.dlr.de/xsd/routes_file.xsd">
    <vehicle id="0" depart="0.00">
        <route edges="23030606#2 23030571#1 23030571#2 23030571#3 32589390"/>
    </vehicle>
    <vehicle id="1" depart="1.00">
        <route edges="23030571#1 23030571#2 -23030585#2 -23030585#1 -23030585#0 -214698660#2"/>
    </vehicle>
    <vehicle id="2" depart="2.00">
        <route edges="-214698660#0 32589385#2 32589385#3 32589385#4 32589385#5 -23030571#5 -23030571#4 -23030571#3 23030571#3"/>
    </vehicle>
    <vehicle id="3" depart="3.00">
        <route edges="-23030601#1 -23030601#0 -32589385#3 -32589385#2 -32589385#1 -32589385#0 275459525#2 275459525#3 275459525#4 275459525#5 275459525#6 1080757461#0 727734261 670384691#2 670384691#3 670384691#4"/>
    </vehicle>
    <vehicle id="4" depart="4.00">
        <route edges="23030601#0 23030601#1 -214711573#0 214698660#1 -23030605#2 -23030605#1"/>
    </vehicle>
    <vehicle id="7" depart="7.00">
        <route edges="23030568#1 214711573#0 -23030601#1 -23030601#0"/>
    </vehicle>
    <vehicle id="8" depart="8.00">
        <route edges="23030571#0 23030571#1 23030571#2 23030571#3 -214711573#2 -214711573#1 214711573#1"/>
    </vehicle>
    <vehicle id="9" depart="9.00">
        <route edges="23030604#1 23030604#2 23030585#2 23030571#3"/>
    </vehicle>
    <vehicle id="11" depart="11.00">
        <route edges="-32690427#1 -32690427#0 -23030601#0 32589385#4 -32589385#4"/>
    </vehicle>
    <vehicle id="12" depart="12.00">
        <route edges="-214698660#2 -214698660#1 -23030568#1 -23030568#0 275459525#3 275459525#4 275459525#5 275459525#6 1080757461#0 727734261 241218778#0 241218778#1"/>
    </vehicle>
    <vehicle id="13" depart="13.00">
        <route edges="-23030571#5 -23030571#4 -23030571#3 -23030571#2 -112587695#1"/>
    </vehicle>
    <vehicle id="14" depart="14.00">
        <route edges="-32589385#2 214698660#0 214711573#0 214711573#1 214711573#2 32589390"/>
    </vehicle>
    <vehicle id="15" depart="15.00">
        <route edges="23030571#1 23030571#2 -23030585#2 -23030585#1 -23030585#0 -214698660#2 -214698660#1"/>
    </vehicle>
    <vehicle id="16" depart="16.00">
        <route edges="-23030606#2 -23030606#1 -23030604#4 -23030604#3 -23030604#2 -23030604#1 -214711573#1 -214711573#0 -214698660#0 32589385#2 32589385#3"/>
    </vehicle>
    <vehicle id="18" depart="18.00">
        <route edges="-32690427#1 23030604#0 214711573#2 -23030571#3 -23030571#2 -112587695#1 -23030603"/>
    </vehicle>
    <vehicle id="19" depart="19.00">
        <route edges="1149834139 1149834136 275459525#0 275459525#1 275459525#2 23030568#0 23030568#1 214711573#0 214711573#1 -23030604#0"/>
    </vehicle>
    <vehicle id="20" depart="20.00">
        <route edges="-23030602 -32589385#6 -23030571#5 -23030571#4 32589390"/>
    </vehicle>
    <vehicle id="22" depart="22.00">
        <route edges="-32690463 23030605#2 -214698660#1 -23030568#1 -23030568#0 275459525#3 275459525#4 275459525#5 275459525#6 1080757461#0 727734261 241218778#0 241218778#1 241218778#2 241218778#3"/>
    </vehicle>
    <vehicle id="24" depart="24.00">
        <route edges="-32589390 -214711573#2 -214711573#1 -23030601#1 -23030601#0 32589385#4"/>
    </vehicle>
    <vehicle id="27" depart="27.00">
        <route edges="-23030571#3 -23030585#2 -23030604#2 -23030604#1 -214711573#1 -214711573#0 -23030568#1 -23030568#0 275459525#3 275459525#4 275459525#5 275459525#6 29266248 241218777"/>
    </vehicle>
    <vehicle id="28" depart="28.00">
        <route edges="-23030601#0 23030601#0 32690427#0 32690427#1 23030571#5"/>
    </vehicle>
    <vehicle id="29" depart="29.00">
        <route edges="23030571#5 -32589385#5 -32589385#4 23030601#0 23030601#1"/>
    </vehicle>
    <vehicle id="30" depart="30.00">
        <route edges="-214698585 214698592#1 -23030606#1 -23030604#4 -23030604#3 -23030604#2 23030604#2"/>
    </vehicle>
    <vehicle id="31" depart="31.00">
        <route edges="-23030585#2 -23030585#1 -32690463 32690463"/>
    </vehicle>
    <vehicle id="32" depart="32.00">
        <route edges="214698660#1 -23030605#2 32690463 -23030585#0"/>
    </vehicle>
    <vehicle id="33" depart="33.00">
        <route edges="-23030606#1 -23030604#4 -23030604#3 23030585#2 23030571#3 23030571#4 23030571#5 32589385#6 23030602"/>
    </vehicle>
    <vehicle id="34" depart="34.00">
        <route edges="-23030585#1 -23030585#0 -214698660#2 -214698660#1 -214698660#0 214698660#0"/>
    </vehicle>
    <vehicle id="35" depart="35.00">
        <route edges="32589385#2 32589385#3 32589385#4 32589385#5 -23030571#5 -23030571#4 -23030571#3 -23030571#2 -23030571#1 -23030606#2 -23030606#1"/>
    </vehicle>
    <vehicle id="36" depart="36.00">
        <route edges="-214698660#0 32589385#2 32589385#3 32589385#4 32589385#5 -23030571#5 -23030571#4 -23030571#3 -23030585#2"/>
    </vehicle>
    <vehicle id="37" depart="37.00">
        <route edges="-32690427#1 -32690427#0 -23030601#0 -32589385#3 -32589385#2 -32589385#1 -32589385#0 275459525#2"/>
    </vehicle>
    <vehicle id="38" depart="38.00">
        <route edges="-23030605#2 -23030605#1 -23030605#0 23030604#2 23030604#3"/>
    </vehicle>
    <vehicle id="39" depart="39.00">
        <route edges="214698660#2 -214698660#2 -214698660#1 -214698660#0 32589385#2 32589385#3"/>
    </vehicle>
    <vehicle id="40" depart="40.00">
        <route edges="-23030605#1 23030605#1 23030605#2 214698660#2"/>
    </vehicle>
    <vehicle id="41" depart="41.00">
        <route edges="32690427#0 23030604#0 -214711573#1 -214711573#0 -23030568#1 23030568#1"/>
    </vehicle>
    <vehicle id="43" depart="43.00">
        <route edges="-32589385#5 -32589385#4 -32589385#3 -32589385#2 -32589385#1 -32589385#0 275459525#2 275459525#3 275459525#4 275459525#5 275459525#6 1080757461#0 727734261 670384691#2 670384691#3 670384691#4 670384691#5"/>
    </vehicle>
    <vehicle id="44" depart="44.00">
        <route edges="-23030571#1 -23030606#2 -23030606#1 -23030604#4 -23030604#3 -23030604#2 -23030604#1 -214711573#1 -214711573#0 -23030568#1 -23030568#0 275459525#3 275459525#4 275459525#5 275459525#6 1080757461#0 727734261 241218778#0 241218778#1 1299270934"/>
    </vehicle>
    <vehicle id="45" depart="45.00">
        <route edges="1080757461#0"/>
    </vehicle>
    <vehicle id="48" depart="48.00">
        <route edges="-23030604#0 -32690427#0 23030601#1 -214711573#0 -214698660#0 32589385#2 32589385#3"/>
    </vehicle>
    <vehicle id="49" depart="49.00">
        <route edges="32690390 32589385#1 32589385#2 32589385#3 23030601#0 23030601#1 23030601#2 23030605#1"/>
    </vehicle>
    <vehicle id="51" depart="51.00">
        <route edges="-32690427#1 -32690427#0 23030601#1 -214711573#0 -214698660#0"/>
    </vehicle>
    <vehicle id="52" depart="52.00">
        <route edges="-23030601#0 -32589385#3 -32589385#2 -32589385#1 -32589385#0 275459525#2 275459525#3 275459525#4 275459525#5 275459525#6 1080757461#0"/>
    </vehicle>
    <vehicle id="54" depart="54.00">
        <route edges="23030568#0 23030568#1 214711573#0 -23030601#1 -23030601#0 -32589385#3"/>
    </vehicle>
    <vehicle id="55" depart="55.00">
        <route edges="23030585#2 23030571#3 23030571#4 23030571#5 -32589385#5"/>
    </vehicle>
    <vehicle id="56" depart="56.00">
        <route edges="32589385#0 32589385#1 32589385#2 32589385#3 23030601#0 23030601#1 214711573#1 -23030604#0"/>
    </vehicle>
    <vehicle id="57" depart="57.00">
        <route edges="275459525#1 32589385#0 32589385#1 32589385#2 32589385#3 32589385#4 32589385#5 32589385#6 -32589385#6"/>
    </vehicle>
    <vehicle id="58" depart="58.00">
        <route edges="23030601#2 23030605#1 23030605#2 214698660#2 23030585#0"/>
    </vehicle>
    <vehicle id="60" depart="60.00">
        <route edges="-23030605#2 -23030605#1 -23030605#0 -23030604#1 214711573#2 -23030571#3"/>
    </vehicle>
    <vehicle id="61" depart="61.00">
        <route edges="275459525#0 275459525#1 32589385#0 32589385#1 214698660#0 214698660#1 214698660#2 214698660#3"/>
    </vehicle>
    <vehicle id="62" depart="62.00">
        <route edges="32589385#1 32589385#2 32589385#3 32589385#4 32589385#5 -23030571#5 -23030571#4 -214711573#2"/>
    </vehicle>
    <vehicle id="63" depart="63.00">
        <route edges="214698592#1 23030606#2 23030571#1 23030571#2 23030571#3 23030571#4 23030571#5 32589385#6 32589385#7"/>
    </vehicle>
    <vehicle id="64" depart="64.00">
        <route edges="23030604#0 -214711573#1 -214711573#0 -23030568#1 -23030568#0 275459525#3 275459525#4 275459525#5 275459525#6 1080757461#0"/>
    </vehicle>
    <vehicle id="65" depart="65.00">
        <route edges="214698592#0 214698592#1 -23030606#1 -23030604#4 -23030604#3 -23030604#2 23030605#0 23030605#1 23030605#2 214698660#2"/>
    </vehicle>
    <vehicle id="66" depart="66.00">
        <route edges="-23030560 -32589385#2 -32589385#1 -32589385#0"/>
    </vehicle>
    <vehicle id="67" depart="67.00">
        <route edges="275459525#1 32589385#0 -32690390 -23030568#0"/>
    </vehicle>
    <vehicle id="68" depart="68.00">
        <route edges="29266248 241218777 727734261 670384691#2 670384691#3 670384691#4 670384691#5"/>
    </vehicle>
    <vehicle id="69" depart="69.00">
        <route edges="214711573#1 23030604#1 23030605#0 23030605#1 23030605#2 214698660#2 214698660#3 -214698660#3"/>
    </vehicle>
    <vehicle id="70" depart="70.00">
        <route edges="23030604#0 -214711573#1 -23030601#1 23030601#1"/>
    </vehicle>
    <vehicle id="71" depart="71.00">
        <route edges="-23030601#1 32690427#0 23030604#0 23030604#1 23030605#0 23030605#1 23030605#2 214698660#2 214698660#3"/>
    </vehicle>
    <vehicle id="72" depart="72.00">
        <route edges="-32589385#6 -32589385#5 -32589385#4 23030601#0 23030601#1 23030601#2 23030605#1 23030605#2 -214698660#1"/>
    </vehicle>
    <vehicle id="74" depart="74.00">
        <route edges="-112587695#1 112587695#1 23030571#2 23030571#3 -214711573#2 23030604#1"/>
    </vehicle>
    <vehicle id="76" depart="76.00">
        <route edges="-32589385#6 -32589385#5 -32589385#4 -32589385#3 -32589385#2 214698660#0 -23030568#1"/>
    </vehicle>
    <vehicle id="80" depart="80.00">
        <route edges="-32589385#1 -32690390 23030568#1 214711573#0 214711573#1 214711573#2"/>
    </vehicle>
    <vehicle id="81" depart="81.00">
        <route edges="214698660#3 -214698660#3 -214698660#2 -23030605#2 32690463"/>
    </vehicle>
    <vehicle id="82" depart="82.00">
        <route edges="-214698660#2 -214698660#1 -23030568#1 -23030568#0 275459525#3 275459525#4 275459525#5 275459525#6"/>
    </vehicle>
    <vehicle id="83" depart="83.00">
        <route edges="-32690463 -23030605#1 -23030605#0 -23030604#1 -23030604#0 32690427#1 23030571#5 -32589385#5"/>
    </vehicle>
    <vehicle id="84" depart="84.00">
        <route edges="23030571#0 23030571#1 23030571#2 23030571#3 -214711573#2 -214711573#1 -214711573#0 -23030568#1 -23030568#0 275459525#3 275459525#4 275459525#5 275459525#6 1080757461#0 727734261 670384691#2 670384691#3 670384691#4 670384691#5 670384691#6"/>
    </vehicle>
    <vehicle id="85" depart="85.00">
        <route edges="32589385#6 -32589385#6 -23030571#5 23030571#5"/>
    </vehicle>
    <vehicle id="86" depart="86.00">
        <route edges="-23030568#1 -23030568#0 275459525#3 275459525#4 275459525#5 275459525#6 1080757461#0 727734261 670384691#2 670384691#3 670384691#4 670384691#5"/>
    </vehicle>
    <vehicle id="87" depart="87.00">
        <route edges="23030571#5 -23030571#5 -23030571#4 -23030571#3 -23030585#2 -23030604#2"/>
    </vehicle>
    <vehicle id="88" depart="88.00">
        <route edges="23030568#1 -214698660#0"/>
    </vehicle>
    <vehicle id="89" depart="89.00">
        <route edges="23030585#0 -32690463 23030605#2 -214698660#1 -23030568#1 -23030568#0 275459525#3 275459525#4 275459525#5 275459525#6 1080757461#0"/>
    </vehicle>
    <vehicle id="90" depart="90.00">
        <route edges="-32690390 23030568#1 214711573#0 23030601#2 -23030601#2"/>
    </vehicle>
    <vehicle id="91" depart="91.00">
        <route edges="-23030571#3 -23030585#2 23030585#2"/>
    </vehicle>
    <vehicle id="93" depart="93.00">
        <route edges="1149834136 275459525#0 275459525#1 32589385#0 32589385#1 32589385#2 32589385#3 32589385#4 32589385#5 -23030571#5 -23030571#4 -23030571#3 -23030571#2 -23030571#1 -23030571#0"/>
    </vehicle>
    <vehicle id="95" depart="95.00">
        <route edges="32690427#1 23030571#5 -32589385#5 -32589385#4 -32589385#3 -32589385#2 -32589385#1 -32589385#0 275459525#2 275459525#3 275459525#4 275459525#5 275459525#6 29266248 241218777"/>
    </vehicle>
    <vehicle id="97" depart="97.00">
        <route edges="214698592#1 23030606#2 23030571#1 23030571#2 23030571#3 23030571#4 -32690427#1"/>
    </vehicle>
    <vehicle id="99" depart="99.00">
        <route edges="32690463 -23030585#0 -214698660#2 -214698660#1 -23030568#1 -23030568#0 275459525#3 275459525#4 275459525#5 275459525#6 29266248 241218777"/>
    </vehicle>
    <vehicle id="100" depart="100.00">
        <route edges="-214698660#3 -214698660#2 -214698660#1 -214698660#0 32589385#2 32589385#3 32589385#4 32589385#5 32589385#6"/>
    </vehicle>
    <vehicle id="101" depart="101.00">
        <route edges="32589385#6 -32589385#6 -32589385#5 -32589385#4 -32589385#3 -32589385#2 214698660#0 -23030568#1 -23030568#0"/>
    </vehicle>
    <vehicle id="102" depart="102.00">
        <route edges="32690427#0 23030604#0 23030604#1 23030604#2 23030604#3 23030604#4 -23030604#4 -23030604#3"/>
    </vehicle>
    <vehicle id="103" depart="103.00">
        <route edges="32589385#6 23030602"/>
    </vehicle>
    <vehicle id="104" depart="104.00">
        <route edges="-23030571#4 -214711573#2 -214711573#1 -214711573#0 -23030568#1 32690390"/>
    </vehicle>
    <vehicle id="105" depart="105.00">
        <route edges="-23030604#1 -214711573#1 -23030601#1"/>
    </vehicle>
    <vehicle id="106" depart="106.00">
        <route edges="-214711573#2 23030604#1"/>
    </vehicle>
    <vehicle id="107" depart="107.00">
        <route edges="23030601#2 23030605#1 23030605#2 214698660#2 214698660#3 -214698660#3"/>
    </vehicle>
    <vehicle id="108" depart="108.00">
        <route edges="1149834135#0 1149834135#1 1149834136 275459525#0 275459525#1 32589385#0 32589385#1 32589385#2 32589385#3 32589385#4 32589385#5 -23030571#5 -23030571#4 32589390"/>
    </vehicle>
    <vehicle id="109" depart="109.00">
        <route edges="23030601#1 -214711573#0 -23030568#1 -23030568#0 275459525#3"/>
    </vehicle>
    <vehicle id="110" depart="110.00">
        <route edges="23030606#1 23030606#2 23030571#1 23030571#2 23030571#3 -214711573#2 23030604#1 23030605#0 23030605#1"/>
    </vehicle>
    <vehicle id="114" depart="114.00">
        <route edges="23030605#1 23030605#2 -214698660#1 -23030568#1 -23030568#0 275459525#3 275459525#4 275459525#5 275459525#6 1080757461#0 727734261 241218778#0 241218778#1 1299270934 102479306#3"/>
    </vehicle>
    <vehicle id="115" depart="115.00">
        <route edges="32589385#3 23030601#0 23030601#1 23030601#2 23030605#1 32690463 -23030585#0 -214698660#2"/>
    </vehicle>
    <vehicle id="116" depart="116.00">
        <route edges="-23030568#1 -23030568#0 275459525#3 275459525#4 275459525#5 275459525#6 1080757461#0 727734261 241218778#0 241218778#1 1299270934"/>
    </vehicle>
    <vehicle id="117" depart="117.00">
        <route edges="23030571#5 -32589385#5 -32589385#4 -32589385#3 -32589385#2 214698660#0 214698660#1 -23030605#2"/>
    </vehicle>
    <vehicle id="118" depart="118.00">
        <route edges="275459525#2 23030568#0 23030568#1 214711573#0 214711573#1 23030604#1 23030604#2 23030585#2 23030571#3"/>
    </vehicle>
    <vehicle id="120" depart="120.00">
        <route edges="32690463 -32690463 23030605#2 214698660#2"/>
    </vehicle>
    <vehicle id="121" depart="121.00">
        <route edges="23030571#4 -32690427#1 23030604#0 23030604#1 23030604#2"/>
    </vehicle>
    <vehicle id="123" depart="123.00">
        <route edges="32589385#6 -32589385#6 -32589385#5 -32589385#4 23030601#0 23030601#1 -214711573#0"/>
    </vehicle>
    <vehicle id="124" depart="124.00">
        <route edges="214711573#1 214711573#2 23030571#4 23030571#5 32589385#6 32589385#7"/>
    </vehicle>
    <vehicle id="125" depart="125.00">
        <route edges="-32589385#7 -32589385#6 -23030571#5 -23030571#4 -23030571#3 -23030571#2 -23030571#1 -23030606#2 -23030606#1 -23030604#4 -23030604#3"/>
    </vehicle>
    <vehicle id="126" depart="126.00">
        <route edges="23030605#0 -23030601#2 -214711573#0 -23030568#1 -23030568#0 275459525#3 275459525#4 275459525#5 275459525#6 1080757461#0 727734261 670384691#2 670384691#3 670384691#4 670384691#5"/>
    </vehicle>
    <vehicle id="127" depart="127.00">
        <route edges="-32589385#1 -32690390 23030568#1 214711573#0 214711573#1 23030604#1 23030604#2 23030604#3 23030604#4 23030606#1"/>
    </vehicle>
    <vehicle id="128" depart="128.00">
        <route edges="23030571#2 23030571#3 -214711573#2 23030604#1 23030605#0 23030605#1"/>
    </vehicle>
    <vehicle id="130" depart="130.00">
        <route edges="-23030605#0 -23030604#1 -23030604#0 32690427#1 23030571#5 32589385#6 23030602"/>
    </vehicle>
    <vehicle id="131" depart="131.00">
        <route edges="23030571#5 -32589385#5 -32589385#4 23030601#0 23030601#1 23030601#2"/>
    </vehicle>
    <vehicle id="132" depart="132.00">
        <route edges="32690427#1 -23030571#4 -23030571#3 -23030571#2 -23030571#1 -23030606#2"/>
    </vehicle>
    <vehicle id="133" depart="133.00">
        <route edges="214698592#0 214698592#1 -23030606#1 -23030604#4 -23030604#3 -23030604#2 -23030604#1 -214711573#1 -214711573#0 -23030568#1 -23030568#0 275459525#3 275459525#4 275459525#5 275459525#6 1080757461#0 727734261 670384691#2 670384691#3 670384691#4 670384691#5 670384691#6"/>
    </vehicle>
    <vehicle id="134" depart="134.00">
        <route edges="-32589385#7 -32589385#6 -32589385#5 -32589385#4 -32589385#3 -32589385#2 -32589385#1 -32589385#0 275459525#2 275459525#3 275459525#4 275459525#5 275459525#6"/>
    </vehicle>
    <vehicle id="136" depart="136.00">
        <route edges="-214711573#0 214698660#1 -23030605#2 -23030605#1"/>
    </vehicle>
    <vehicle id="137" depart="137.00">
        <route edges="112587695#1 23030571#2 23030571#3 -214711573#2"/>
    </vehicle>
    <vehicle id="139" depart="139.00">
        <route edges="214698592#1 23030606#2 23030571#1 23030571#2"/>
    </vehicle>
    <vehicle id="140" depart="140.00">
        <route edges="-214711600 23030604#4 23030606#1 23030606#2 23030571#1 23030571#2"/>
    </vehicle>
    <vehicle id="141" depart="141.00">
        <route edges="214698660#1 -214698660#1 -23030568#1 -23030568#0 275459525#3 275459525#4 275459525#5 275459525#6 1080757461#0 727734261"/>
    </vehicle>
    <vehicle id="142" depart="142.00">
        <route edges="23030601#2 -23030601#2 -23030601#1 32690427#0"/>
    </vehicle>
    <vehicle id="143" depart="143.00">
        <route edges="102479306#1 102479306#2 102479306#3 670384691#3"/>
    </vehicle>
    <vehicle id="144" depart="144.00">
        <route edges="23030601#2 -23030605#0 -23030604#1 214711573#2 -214711573#2"/>
    </vehicle>
    <vehicle id="145" depart="145.00">
        <route edges="-23030601#1 32690427#0 23030604#0 -214711573#1 -214711573#0 -23030568#1"/>
    </vehicle>
    <vehicle id="146" depart="146.00">
        <route edges="-23030604#1 -214711573#1 -23030601#1 32690427#0"/>
    </vehicle>
    <vehicle id="147" depart="147.00">
        <route edges="214711573#0 -214711573#0 -23030568#1 -23030568#0 275459525#3 275459525#4 275459525#5 275459525#6 1080757461#0 727734261 241218778#0 241218778#1 241218778#2 241218778#3"/>
    </vehicle>
    <vehicle id="148" depart="148.00">
        <route edges="-23030604#3 23030604#3 23030604#4"/>
    </vehicle>
    <vehicle id="149" depart="149.00">
        <route edges="214698660#3 -214698585 214698592#1 23030606#2 23030571#1 23030571#2 23030571#3 32589390"/>
    </vehicle>
    <vehicle id="150" depart="150.00">
        <route edges="214698592#1 23030606#2"/>
    </vehicle>
    <vehicle id="151" depart="151.00">
        <route edges="23030604#0 23030604#1 23030605#0 23030605#1"/>
    </vehicle>
    <vehicle id="152" depart="152.00">
        <route edges="23030606#0 -23030604#4 214711600"/>
    </vehicle>
    <vehicle id="153" depart="153.00">
        <route edges="23030605#2 -23030605#2 -23030605#1 -23030605#0 23030604#2 -23030585#1"/>
    </vehicle>
    <vehicle id="161" depart="161.00">
        <route edges="-23030585#1 -32690463 -23030605#1 -23030605#0 -23030604#1 214711573#2 -23030571#3 -23030571#2 -112587695#1 -23030603"/>
    </vehicle>
    <vehicle id="162" depart="162.00">
        <route edges="-32589385#1 -32690390 23030568#1 214698660#1 214698660#2 23030585#0 23030585#1 -23030604#2"/>
    </vehicle>
    <vehicle id="163" depart="163.00">
        <route edges="1149834139 1149834136 275459525#0 275459525#1 275459525#2"/>
    </vehicle>
    <vehicle id="164" depart="164.00">
        <route edges="-214698592#1 214698592#1 23030606#2 23030571#1 23030571#2 23030571#3"/>
    </vehicle>
    <vehicle id="167" depart="167.00">
        <route edges="-32690463 23030605#2 -214698660#1 -214698660#0"/>
    </vehicle>
    <vehicle id="169" depart="169.00">
        <route edges="-23030602 -32589385#6 -32589385#5 23030567#0 23030567#1"/>
    </vehicle>
    <vehicle id="172" depart="172.00">
        <route edges="32589385#6 -32589385#6 -23030571#5 -23030571#4 -23030571#3 -23030571#2 -112587695#1 -112587695#0"/>
    </vehicle>
    <vehicle id="173" depart="173.00">
        <route edges="112587695#1"/>
    </vehicle>
    <vehicle id="174" depart="174.00">
        <route edges="-32589385#2 -32589385#1 -32589385#0 275459525#2 275459525#3 275459525#4 275459525#5 275459525#6 29266248"/>
    </vehicle>
    <vehicle id="175" depart="175.00">
        <route edges="-214698660#3 23030585#0 23030585#1 23030585#2 23030571#3 -214711573#2"/>
    </vehicle>
    <vehicle id="176" depart="176.00">
        <route edges="-23030571#3 -23030571#2 -112587695#1 112587695#1"/>
    </vehicle>
    <vehicle id="177" depart="177.00">
        <route edges="-23030606#2 -23030606#1 -23030604#4 -23030604#3 23030585#2 23030571#3 23030571#4 23030571#5 -32589385#5 23030567#0 23030567#1"/>
    </vehicle>
    <vehicle id="178" depart="178.00">
        <route edges="23030568#0 23030568#1 -214698660#0 32589385#2 32589385#3 32589385#4 32589385#5"/>
    </vehicle>
    <vehicle id="179" depart="179.00">
        <route edges="275459525#0 275459525#1 32589385#0 32589385#1 32589385#2 32589385#3 32589385#4 32589385#5 -23030571#5 -32690427#1 -32690427#0"/>
    </vehicle>
    <vehicle id="180" depart="180.00">
        <route edges="112587695#0 112587695#1 23030571#2 -23030585#2 -23030585#1"/>
    </vehicle>
    <vehicle id="182" depart="182.00">
        <route edges="23030568#1 214711573#0 214711573#1 23030604#1 23030604#2 23030604#3 214711600"/>
    </vehicle>
    <vehicle id="183" depart="183.00">
        <route edges="214698592#1 -23030606#1 -23030604#4 -23030604#3 -23030604#2 -23030604#1 -214711573#1 -214711573#0 -23030568#1 -23030568#0 275459525#3 275459525#4 275459525#5 275459525#6 1080757461#0 727734261 670384691#2 670384691#3"/>
    </vehicle>
    <vehicle id="184" depart="184.00">
        <route edges="-23030601#2 -214711573#0 -23030568#1 -23030568#0 275459525#3 275459525#4 275459525#5 275459525#6 1080757461#0 727734261"/>
    </vehicle>
    <vehicle id="185" depart="185.00">
        <route edges="-23030585#2 -23030585#1 -32690463 -23030605#1"/>
    </vehicle>
    <vehicle id="187" depart="187.00">
        <route edges="23030604#1 23030605#0 -23030601#2 -214711573#0 -23030568#1 -23030568#0 275459525#3 275459525#4 275459525#5 275459525#6 1080757461#0 727734261 241218778#0 241218778#1 1299270934"/>
    </vehicle>
    <vehicle id="189" depart="189.00">
        <route edges="32589385#0 32589385#1 32589385#2 32589385#3 32589385#4 32589385#5 32589385#6 23030602"/>
    </vehicle>
    <vehicle id="190" depart="190.00">
        <route edges="23030605#0 -23030601#2 214711573#1 214711573#2 -23030571#3 -23030571#2 -23030571#1"/>
    </vehicle>
    <vehicle id="193" depart="193.00">
        <route edges="1149834136 275459525#0 275459525#1 32589385#0 32589385#1 214698660#0 214698660#1 214698660#2"/>
    </vehicle>
    <vehicle id="194" depart="194.00">
        <route edges="-32589385#6 32589385#6 23030602"/>
    </vehicle>
    <vehicle id="195" depart="195.00">
        <route edges="-214711573#2 23030604#1 23030605#0 23030605#1 23030605#2"/>
    </vehicle>
    <vehicle id="198" depart="198.00">
        <route edges="32589385#2 32589385#3 23030601#0 32690427#0"/>
    </vehicle>
    <vehicle id="200" depart="200.00">
        <route edges="112587695#0 112587695#1 23030571#2 23030571#3 23030571#4"/>
    </vehicle>
    <vehicle id="203" depart="203.00">
        <route edges="214698592#1 -23030606#1 -23030604#4 -23030604#3 -23030604#2 -23030604#1 -23030604#0 -32690427#0 23030601#1"/>
    </vehicle>
    <vehicle id="205" depart="205.00">
        <route edges="23030568#0 23030568#1 214711573#0 214711573#1 214711573#2 -23030571#3 -23030571#2 23030571#2"/>
    </vehicle>
    <vehicle id="206" depart="206.00">
        <route edges="214698660#3 -214698660#3 -214698660#2 -214698660#1 -23030568#1 -23030568#0 275459525#3 275459525#4 275459525#5 275459525#6 1080757461#0 727734261 241218778#0 241218778#1 1299270934 102479306#3"/>
    </vehicle>
    <vehicle id="208" depart="208.00">
        <route edges="-23030604#3 -23030604#2 -23030604#1 -23030604#0 -32690427#0 -23030601#0 -32589385#3 -32589385#2 -32589385#1 -32589385#0"/>
    </vehicle>
    <vehicle id="209" depart="209.00">
        <route edges="-23030604#0 -32690427#0 -23030601#0 -32589385#3"/>
    </vehicle>
    <vehicle id="211" depart="211.00">
        <route edges="32589385#0 -32690390 -23030568#0 275459525#3 275459525#4 275459525#5 275459525#6 1080757461#0 727734261 241218778#0 241218778#1"/>
    </vehicle>
    <vehicle id="213" depart="213.00">
        <route edges="-32589385#0 32589385#0 32589385#1 32589385#2 32589385#3 32589385#4 32589385#5 -23030571#5 -23030571#4 -23030571#3 -23030571#2 -112587695#1 -112587695#0"/>
    </vehicle>
    <vehicle id="214" depart="214.00">
        <route edges="-23030605#0 23030605#0 -23030601#2 -23030601#1 -23030601#0 -32589385#3 -32589385#2 -32589385#1"/>
    </vehicle>
    <vehicle id="215" depart="215.00">
        <route edges="32589385#5 -32589385#5 -32589385#4 -32589385#3 -32589385#2 -32589385#1 -32589385#0"/>
    </vehicle>
    <vehicle id="216" depart="216.00">
        <route edges="23030585#1 -23030604#2 -23030604#1 -23030604#0 -32690427#0 -23030601#0 32589385#4 32589385#5"/>
    </vehicle>
    <vehicle id="218" depart="218.00">
        <route edges="214698592#1 -23030606#1 -23030604#4 -23030604#3 -23030604#2 -23030604#1 -214711573#1 -214711573#0"/>
    </vehicle>
    <vehicle id="219" depart="219.00">
        <route edges="-32589385#5 -32589385#4 -32589385#3 -32589385#2 214698660#0 -23030568#1 -23030568#0"/>
    </vehicle>
    <vehicle id="221" depart="221.00">
        <route edges="-214711573#1 -214711573#0 214698660#1 -23030605#2"/>
    </vehicle>
    <vehicle id="222" depart="222.00">
        <route edges="-23030560 32589385#3 32589385#4 32589385#5 -23030571#5 -23030571#4 -23030571#3 -23030585#2"/>
    </vehicle>
    <vehicle id="223" depart="223.00">
        <route edges="23030571#4 -32690427#1 -32690427#0 23030601#1 -214711573#0 214698660#1 214698660#2"/>
    </vehicle>
    <vehicle id="224" depart="224.00">
        <route edges="23030604#3 23030604#4 23030606#1 23030606#2 23030571#1 -112587695#1 -112587695#0"/>
    </vehicle>
    <vehicle id="225" depart="225.00">
        <route edges="-23030604#4 -23030604#3 -23030604#2 -23030604#1 -23030604#0 23030604#0"/>
    </vehicle>
    <vehicle id="226" depart="226.00">
        <route edges="-214698660#4 -214698660#3 -214698660#2 -214698660#1 -23030568#1 -23030568#0 275459525#3 275459525#4 275459525#5 275459525#6 29266248"/>
    </vehicle>
    <vehicle id="227" depart="227.00">
        <route edges="-23030606#1 -23030604#4 -23030604#3 -23030604#2 23030605#0 -23030601#2"/>
    </vehicle>
    <vehicle id="228" depart="228.00">
        <route edges="214698660#2 23030585#0 -32690463 -23030605#1"/>
    </vehicle>
    <vehicle id="229" depart="229.00">
        <route edges="-23030560 -32589385#2 -32589385#1 -32589385#0 275459525#2 275459525#3 275459525#4 275459525#5 275459525#6 1080757461#0 727734261 241218778#0"/>
    </vehicle>
    <vehicle id="230" depart="230.00">
        <route edges="-214698660#4 -214698660#3 -214698660#2 -23030605#2"/>
    </vehicle>
    <vehicle id="231" depart="231.00">
        <route edges="-23030601#0 -32589385#3 -32589385#2 -32589385#1 -32589385#0 275459525#2"/>
    </vehicle>
    <vehicle id="232" depart="232.00">
        <route edges="23030605#0 -23030601#2 -214711573#0 -23030568#1 -23030568#0 275459525#3 275459525#4 275459525#5 275459525#6"/>
    </vehicle>
    <vehicle id="233" depart="233.00">